11_std.xyz
 OpenBabel12062321233D

 23 23  0  0  0  0  0  0  0  0999 V2000
   -0.4606   -1.8748   -2.1596 O   0  0  0  0  0  0  0  0  0  0  0  0
   -0.2164   -1.4622   -1.0382 C   0  0  0  0  0  0  0  0  0  0  0  0
   -0.2893   -0.0499   -0.6167 C   0  0  0  0  0  0  0  0  0  0  0  0
   -0.4988    1.0499   -1.4793 C   0  0  0  0  0  0  0  0  0  0  0  0
   -0.6153    2.0004   -2.2024 C   0  0  0  0  0  0  0  0  0  0  0  0
   -0.7011    3.1651   -3.0843 C   0  0  0  0  0  0  0  0  0  0  0  0
    0.0000    0.0000    0.6868 C   0  0  0  0  0  0  0  0  0  0  0  0
    0.1532    1.1655    1.4744 C   0  0  0  0  0  0  0  0  0  0  0  0
    0.3325    2.1708    2.1022 C   0  0  0  0  0  0  0  0  0  0  0  0
    0.5910    3.4088    2.8379 C   0  0  0  0  0  0  0  0  0  0  0  0
    0.1832   -2.1770    0.0419 N   0  0  0  0  0  0  0  0  0  0  0  0
    0.5233   -3.5780    0.0341 C   0  0  0  0  0  0  0  0  0  0  0  0
    0.2693   -1.3797    1.1376 C   0  0  0  0  0  0  0  0  0  0  0  0
    0.5333   -1.7124    2.2792 O   0  0  0  0  0  0  0  0  0  0  0  0
    0.1932    3.7888   -2.9902 H   0  0  0  0  0  0  0  0  0  0  0  0
   -1.5704    3.7799   -2.8332 H   0  0  0  0  0  0  0  0  0  0  0  0
   -0.7901    2.8580   -4.1307 H   0  0  0  0  0  0  0  0  0  0  0  0
    0.0000    3.4500    3.7573 H   0  0  0  0  0  0  0  0  0  0  0  0
    0.3394    4.2824    2.2295 H   0  0  0  0  0  0  0  0  0  0  0  0
    1.6488    3.4812    3.1089 H   0  0  0  0  0  0  0  0  0  0  0  0
    0.4114   -4.0040   -0.9662 H   0  0  0  0  0  0  0  0  0  0  0  0
   -0.1137   -4.1089    0.7469 H   0  0  0  0  0  0  0  0  0  0  0  0
    1.5637   -3.6812    0.3589 H   0  0  0  0  0  0  0  0  0  0  0  0
  1  2  2  0  0  0  0
  2  3  1  0  0  0  0
  2 11  1  0  0  0  0
  3  7  2  0  0  0  0
  4  3  1  0  0  0  0
  5  4  3  0  0  0  0
  6 15  1  0  0  0  0
  6 16  1  0  0  0  0
  6  5  1  0  0  0  0
  7 13  1  0  0  0  0
  7  8  1  0  0  0  0
  8  9  3  0  0  0  0
  9 10  1  0  0  0  0
 10 20  1  0  0  0  0
 10 18  1  0  0  0  0
 11 13  1  0  0  0  0
 12 11  1  0  0  0  0
 12 23  1  0  0  0  0
 12 22  1  0  0  0  0
 13 14  2  0  0  0  0
 17  6  1  0  0  0  0
 19 10  1  0  0  0  0
 21 12  1  0  0  0  0
M  END
$$$$
