12_std.xyz
 OpenBabel12062321233D

 22 22  0  0  0  0  0  0  0  0999 V2000
    0.0000    1.1864   -3.3268 C   0  0  0  0  0  0  0  0  0  0  0  0
   -0.0001    1.6728   -1.9880 O   0  0  0  0  0  0  0  0  0  0  0  0
   -0.0000    0.6705   -1.0322 C   0  0  0  0  0  0  0  0  0  0  0  0
   -0.0000   -0.6133   -1.4440 N   0  0  0  0  0  4  0  0  0  0  0  0
    0.0000   -1.5433   -0.4833 C   0  0  0  0  0  0  0  0  0  0  0  0
   -0.0000   -2.8413   -0.9446 O   0  0  0  0  0  0  0  0  0  0  0  0
    0.0001   -3.8050    0.1003 C   0  0  0  0  0  0  0  0  0  0  0  0
    0.0000   -1.3012    0.8327 N   0  0  0  0  0  0  0  0  0  0  0  0
    0.0000    0.0000    1.1882 C   0  0  0  0  0  0  0  0  0  0  0  0
    0.0000    0.1936    2.6090 C   0  0  0  0  0  0  0  0  0  0  0  0
    0.0000    0.3630    3.7982 C   0  0  0  0  0  0  0  0  0  0  0  0
   -0.0000    1.0539    0.2958 C   0  0  0  0  0  0  0  0  0  0  0  0
   -0.0000    2.4259    0.7103 C   0  0  0  0  0  0  0  0  0  0  0  0
   -0.0000    3.5704    1.0740 C   0  0  0  0  0  0  0  0  0  0  0  0
   -0.0001    2.0527   -3.9954 H   0  0  0  0  0  0  0  0  0  0  0  0
    0.9037    0.6040   -3.5374 H   0  0  0  0  0  0  0  0  0  0  0  0
   -0.9034    0.6038   -3.5375 H   0  0  0  0  0  0  0  0  0  0  0  0
    0.0001   -4.7974   -0.3611 H   0  0  0  0  0  0  0  0  0  0  0  0
    0.9035   -3.7259    0.7153 H   0  0  0  0  0  0  0  0  0  0  0  0
   -0.9031   -3.7259    0.7155 H   0  0  0  0  0  0  0  0  0  0  0  0
    0.0000    0.5165    4.8521 H   0  0  0  0  0  0  0  0  0  0  0  0
   -0.0000    4.5841    1.4021 H   0  0  0  0  0  0  0  0  0  0  0  0
  1  2  1  0  0  0  0
  2  3  1  0  0  0  0
  3 12  1  0  0  0  0
  4  3  2  0  0  0  0
  4  5  2  0  0  0  0
  5  8  2  0  0  0  0
  6  5  1  0  0  0  0
  6  7  1  0  0  0  0
  7 19  1  0  0  0  0
  7 20  1  0  0  0  0
  8  9  1  0  0  0  0
  9 10  1  0  0  0  0
 10 11  3  0  0  0  0
 11 21  1  0  0  0  0
 12 13  1  0  0  0  0
 12  9  2  0  0  0  0
 13 14  3  0  0  0  0
 14 22  1  0  0  0  0
 15  1  1  0  0  0  0
 16  1  1  0  0  0  0
 17  1  1  0  0  0  0
 18  7  1  0  0  0  0
M  END
$$$$
