14_std.xyz
 OpenBabel12062321233D

 20 21  0  0  0  0  0  0  0  0999 V2000
    0.0000    3.6416   -1.7113 C   0  0  0  0  0  0  0  0  0  0  0  0
    0.0000    2.5527   -1.2044 C   0  0  0  0  0  0  0  0  0  0  0  0
    0.0001    1.2418   -0.6299 C   0  0  0  0  0  0  0  0  0  0  0  0
    0.0000    1.2193    0.7244 N   0  0  0  0  0  0  0  0  0  0  0  0
    0.0000    0.0000    1.2983 C   0  0  0  0  0  0  0  0  0  0  0  0
   -0.0000   -0.1018    2.6841 C   0  0  0  0  0  0  0  0  0  0  0  0
   -0.0001   -1.3429    3.3228 C   0  0  0  0  0  0  0  0  0  0  0  0
   -0.0001   -2.5053    2.5628 C   0  0  0  0  0  0  0  0  0  0  0  0
   -0.0001   -2.4180    1.1697 C   0  0  0  0  0  0  0  0  0  0  0  0
   -0.0000   -1.1894    0.5207 C   0  0  0  0  0  0  0  0  0  0  0  0
   -0.0000   -1.1526   -0.8264 N   0  0  0  0  0  0  0  0  0  0  0  0
    0.0000    0.0790   -1.3902 C   0  0  0  0  0  0  0  0  0  0  0  0
    0.0001    0.0795   -2.8215 C   0  0  0  0  0  0  0  0  0  0  0  0
    0.0001    0.1072   -4.0222 C   0  0  0  0  0  0  0  0  0  0  0  0
    0.0000    4.6024   -2.1712 H   0  0  0  0  0  0  0  0  0  0  0  0
    0.0000    0.8084    3.2794 H   0  0  0  0  0  0  0  0  0  0  0  0
   -0.0001   -1.3967    4.4088 H   0  0  0  0  0  0  0  0  0  0  0  0
   -0.0002   -3.4785    3.0476 H   0  0  0  0  0  0  0  0  0  0  0  0
   -0.0001   -3.3284    0.5746 H   0  0  0  0  0  0  0  0  0  0  0  0
    0.0002    0.1431   -5.0868 H   0  0  0  0  0  0  0  0  0  0  0  0
  1  2  3  0  0  0  0
  2  3  1  0  0  0  0
  3  4  1  0  0  0  0
  4  5  2  0  0  0  0
  5  6  1  0  0  0  0
  6 16  1  0  0  0  0
  6  7  2  0  0  0  0
  7 17  1  0  0  0  0
  8 18  1  0  0  0  0
  8  7  1  0  0  0  0
  9  8  2  0  0  0  0
 10  9  1  0  0  0  0
 10  5  1  0  0  0  0
 11 10  2  0  0  0  0
 12 11  1  0  0  0  0
 12  3  2  0  0  0  0
 13 12  1  0  0  0  0
 14 13  3  0  0  0  0
 15  1  1  0  0  0  0
 19  9  1  0  0  0  0
 20 14  1  0  0  0  0
M  END
$$$$
