16_std.xyz
 OpenBabel12062321233D

 15 15  0  0  0  0  0  0  0  0999 V2000
    0.0000    2.1295    2.2833 C   0  0  0  0  0  0  0  0  0  0  0  0
   -0.0000    1.1529    1.5848 C   0  0  0  0  0  0  0  0  0  0  0  0
    0.0000    0.0000    0.7336 C   0  0  0  0  0  0  0  0  0  0  0  0
    0.0000   -1.2766    1.2979 C   0  0  0  0  0  0  0  0  0  0  0  0
    0.0000   -2.3958    0.4680 C   0  0  0  0  0  0  0  0  0  0  0  0
    0.0000   -2.1984   -0.9038 C   0  0  0  0  0  0  0  0  0  0  0  0
   -0.0000   -0.9809   -1.4877 N   0  0  0  0  0  0  0  0  0  0  0  0
   -0.0000    0.0929   -0.6584 C   0  0  0  0  0  0  0  0  0  0  0  0
   -0.0000    1.3506   -1.3456 C   0  0  0  0  0  0  0  0  0  0  0  0
   -0.0000    2.4130   -1.9061 C   0  0  0  0  0  0  0  0  0  0  0  0
    0.0000    3.0064    2.8884 H   0  0  0  0  0  0  0  0  0  0  0  0
    0.0000   -1.4043    2.3774 H   0  0  0  0  0  0  0  0  0  0  0  0
    0.0000   -3.3983    0.8820 H   0  0  0  0  0  0  0  0  0  0  0  0
    0.0000   -3.0406   -1.5906 H   0  0  0  0  0  0  0  0  0  0  0  0
   -0.0000    3.3575   -2.3974 H   0  0  0  0  0  0  0  0  0  0  0  0
  1 11  1  0  0  0  0
  2  1  3  0  0  0  0
  3  4  1  0  0  0  0
  3  2  1  0  0  0  0
  4 12  1  0  0  0  0
  5 13  1  0  0  0  0
  5  4  2  0  0  0  0
  6  5  1  0  0  0  0
  7  6  2  0  0  0  0
  7  8  1  0  0  0  0
  8  3  2  0  0  0  0
  9  8  1  0  0  0  0
 10  9  3  0  0  0  0
 14  6  1  0  0  0  0
 15 10  1  0  0  0  0
M  END
$$$$
