17_std.xyz
 OpenBabel12062321233D

 18 18  0  0  0  0  0  0  0  0999 V2000
    0.1181    2.5613    1.6037 C   0  0  0  0  0  0  0  0  0  0  0  0
    0.0641    1.3907    1.3397 C   0  0  0  0  0  0  0  0  0  0  0  0
    0.0000    0.0000    0.9982 C   0  0  0  0  0  0  0  0  0  0  0  0
   -0.0205   -0.4450   -0.3240 C   0  0  0  0  0  0  0  0  0  0  0  0
   -0.0839   -1.8214   -0.5442 C   0  0  0  0  0  0  0  0  0  0  0  0
   -0.1240   -2.6904    0.5444 C   0  0  0  0  0  0  0  0  0  0  0  0
   -0.0991   -2.1497    1.8205 C   0  0  0  0  0  0  0  0  0  0  0  0
   -0.0381   -0.8249    2.0746 N   0  0  0  0  0  0  0  0  0  0  0  0
    0.0210    0.4549   -1.4379 C   0  0  0  0  0  0  0  0  0  0  0  0
    0.0572    1.2402   -2.3461 C   0  0  0  0  0  0  0  0  0  0  0  0
    0.1027    2.2280   -3.4230 C   0  0  0  0  0  0  0  0  0  0  0  0
    0.1660    3.6007    1.8289 H   0  0  0  0  0  0  0  0  0  0  0  0
   -0.1023   -2.2195   -1.5555 H   0  0  0  0  0  0  0  0  0  0  0  0
   -0.1735   -3.7643    0.4004 H   0  0  0  0  0  0  0  0  0  0  0  0
   -0.1286   -2.7879    2.6995 H   0  0  0  0  0  0  0  0  0  0  0  0
    0.0000    1.7470   -4.3999 H   0  0  0  0  0  0  0  0  0  0  0  0
   -0.7069    2.9564   -3.3150 H   0  0  0  0  0  0  0  0  0  0  0  0
    1.0514    2.7732   -3.4093 H   0  0  0  0  0  0  0  0  0  0  0  0
  1 12  1  0  0  0  0
  2  1  3  0  0  0  0
  3  2  1  0  0  0  0
  3  8  1  0  0  0  0
  4  3  2  0  0  0  0
  5  4  1  0  0  0  0
  5  6  2  0  0  0  0
  6  7  1  0  0  0  0
  7  8  2  0  0  0  0
  7 15  1  0  0  0  0
  9  4  1  0  0  0  0
 10  9  3  0  0  0  0
 11 18  1  0  0  0  0
 11 17  1  0  0  0  0
 11 10  1  0  0  0  0
 13  5  1  0  0  0  0
 14  6  1  0  0  0  0
 16 11  1  0  0  0  0
M  END
$$$$
