18_std.xyz
 OpenBabel12062321233D

 18 18  0  0  0  0  0  0  0  0999 V2000
    0.9171    2.3846    1.6916 C   0  0  0  0  0  0  0  0  0  0  0  0
    0.4979    1.2946    1.4123 C   0  0  0  0  0  0  0  0  0  0  0  0
    0.0000    0.0000    1.0511 C   0  0  0  0  0  0  0  0  0  0  0  0
   -0.3501   -0.9105    2.0486 C   0  0  0  0  0  0  0  0  0  0  0  0
   -0.8336   -2.1677    1.6924 C   0  0  0  0  0  0  0  0  0  0  0  0
   -0.9504   -2.4713    0.3448 C   0  0  0  0  0  0  0  0  0  0  0  0
   -0.6224   -1.6184   -0.6497 N   0  0  0  0  0  0  0  0  0  0  0  0
   -0.1543   -0.4011   -0.2767 C   0  0  0  0  0  0  0  0  0  0  0  0
    0.1763    0.4585   -1.3747 C   0  0  0  0  0  0  0  0  0  0  0  0
    0.4687    1.2187   -2.2583 C   0  0  0  0  0  0  0  0  0  0  0  0
    0.8361    2.1739   -3.3012 C   0  0  0  0  0  0  0  0  0  0  0  0
    1.2907    3.3560    1.9189 H   0  0  0  0  0  0  0  0  0  0  0  0
   -0.2488   -0.6470    3.0982 H   0  0  0  0  0  0  0  0  0  0  0  0
   -1.1126   -2.8932    2.4488 H   0  0  0  0  0  0  0  0  0  0  0  0
   -1.3226   -3.4392    0.0200 H   0  0  0  0  0  0  0  0  0  0  0  0
    1.1187    3.1351   -2.8601 H   0  0  0  0  0  0  0  0  0  0  0  0
    1.6853    1.8076   -3.8853 H   0  0  0  0  0  0  0  0  0  0  0  0
    0.0000    2.3483   -3.9847 H   0  0  0  0  0  0  0  0  0  0  0  0
  1 12  1  0  0  0  0
  2  1  3  0  0  0  0
  3  2  1  0  0  0  0
  3  4  1  0  0  0  0
  4 13  1  0  0  0  0
  5  4  2  0  0  0  0
  5 14  1  0  0  0  0
  6  5  1  0  0  0  0
  7  8  1  0  0  0  0
  7  6  2  0  0  0  0
  8  3  2  0  0  0  0
  9  8  1  0  0  0  0
 10  9  3  0  0  0  0
 11 16  1  0  0  0  0
 11 10  1  0  0  0  0
 15  6  1  0  0  0  0
 17 11  1  0  0  0  0
 18 11  1  0  0  0  0
M  END
$$$$
