21_std.xyz
 OpenBabel12062321233D

 18 18  0  0  0  0  0  0  0  0999 V2000
    0.0510    1.1950    1.7010 C   0  0  0  0  0  0  0  0  0  0  0  0
    0.0000    0.0000    1.8177 C   0  0  0  0  0  0  0  0  0  0  0  0
   -0.1000   -1.4646    1.7916 C   0  0  0  0  0  0  0  0  0  0  0  0
    0.3252   -2.0966    0.4568 C   0  0  0  0  0  0  0  0  0  0  0  0
   -0.7473   -1.7116   -0.9850 S   0  0  0  0  0  0  0  0  0  0  0  0
    0.3763   -0.6737   -1.9999 C   0  0  0  0  0  0  0  0  0  0  0  0
    0.3980    0.7151   -1.5417 C   0  0  0  0  0  0  0  0  0  0  0  0
    0.3627    1.7815   -0.9886 C   0  0  0  0  0  0  0  0  0  0  0  0
    0.2519    2.8385   -0.0406 C   0  0  0  0  0  0  0  0  0  0  0  0
    0.1022    2.5521    1.2654 C   0  0  0  0  0  0  0  0  0  0  0  0
    0.5477   -1.8695    2.5793 H   0  0  0  0  0  0  0  0  0  0  0  0
   -1.1218   -1.7708    2.0431 H   0  0  0  0  0  0  0  0  0  0  0  0
    0.2576   -3.1847    0.5793 H   0  0  0  0  0  0  0  0  0  0  0  0
    1.3717   -1.8744    0.2254 H   0  0  0  0  0  0  0  0  0  0  0  0
    1.3799   -1.1103   -2.0043 H   0  0  0  0  0  0  0  0  0  0  0  0
    0.0072   -0.7081   -3.0299 H   0  0  0  0  0  0  0  0  0  0  0  0
    0.2736    3.8653   -0.3883 H   0  0  0  0  0  0  0  0  0  0  0  0
    0.0000    3.3425    2.0005 H   0  0  0  0  0  0  0  0  0  0  0  0
  1  2  3  0  0  0  0
  3  2  1  0  0  0  0
  3 12  1  0  0  0  0
  3 11  1  0  0  0  0
  4 13  1  0  0  0  0
  4  3  1  0  0  0  0
  5  4  1  0  0  0  0
  6  7  1  0  0  0  0
  6  5  1  0  0  0  0
  7  8  3  0  0  0  0
  8  9  1  0  0  0  0
  9 10  2  0  0  0  0
 10  1  1  0  0  0  0
 10 18  1  0  0  0  0
 14  4  1  0  0  0  0
 15  6  1  0  0  0  0
 16  6  1  0  0  0  0
 17  9  1  0  0  0  0
M  END
$$$$
