26_std.xyz
 OpenBabel12062321233D

 36 36  0  0  0  0  0  0  0  0999 V2000
   -0.2362   -0.3157    3.5979 O   0  0  0  0  0  0  0  0  0  0  0  0
   -0.2593    0.4200    2.6264 C   0  0  0  0  0  0  0  0  0  0  0  0
    0.0000    0.0000    1.2364 C   0  0  0  0  0  0  0  0  0  0  0  0
    0.0989   -1.3412    0.7700 C   0  0  0  0  0  0  0  0  0  0  0  0
    0.1350   -2.4559    0.3302 C   0  0  0  0  0  0  0  0  0  0  0  0
    0.1414   -3.8232   -0.2412 C   0  0  0  0  0  0  0  0  0  0  0  0
    1.0665   -4.7619    0.5294 C   0  0  0  0  0  0  0  0  0  0  0  0
    0.6558   -4.8865    1.8874 O   0  0  0  0  0  0  0  0  0  0  0  0
   -0.0225    1.1131    0.4930 C   0  0  0  0  0  0  0  0  0  0  0  0
    0.0193    1.1170   -1.0264 C   0  0  0  0  0  0  0  0  0  0  0  0
    0.0552    1.1204   -2.3298 C   0  0  0  0  0  0  0  0  0  0  0  0
    0.0970    1.1244   -3.8492 C   0  0  0  0  0  0  0  0  0  0  0  0
   -1.0697    0.2851   -4.3844 C   0  0  0  0  0  0  0  0  0  0  0  0
   -0.0264    2.5686   -4.3503 C   0  0  0  0  0  0  0  0  0  0  0  0
    1.4284    0.5226   -4.3151 C   0  0  0  0  0  0  0  0  0  0  0  0
   -0.2853    2.2640    1.3632 C   0  0  0  0  0  0  0  0  0  0  0  0
   -0.5353    1.7516    2.5958 N   0  0  0  0  0  0  0  0  0  0  0  0
   -1.0367    2.5038    3.7169 C   0  0  0  0  0  0  0  0  0  0  0  0
   -0.2744    3.4309    1.0167 O   0  0  0  0  0  0  0  0  0  0  0  0
    0.4553   -3.7798   -1.2888 H   0  0  0  0  0  0  0  0  0  0  0  0
   -0.8757   -4.2291   -0.2356 H   0  0  0  0  0  0  0  0  0  0  0  0
    2.1056   -4.4175    0.5072 H   0  0  0  0  0  0  0  0  0  0  0  0
    1.0380   -5.7646    0.0862 H   0  0  0  0  0  0  0  0  0  0  0  0
    0.8370   -4.0326    2.3233 H   0  0  0  0  0  0  0  0  0  0  0  0
   -2.0347    0.6881   -4.0550 H   0  0  0  0  0  0  0  0  0  0  0  0
   -1.0111   -0.7508   -4.0301 H   0  0  0  0  0  0  0  0  0  0  0  0
   -1.0721    0.2645   -5.4801 H   0  0  0  0  0  0  0  0  0  0  0  0
   -0.9663    3.0262   -4.0200 H   0  0  0  0  0  0  0  0  0  0  0  0
    0.0000    2.6110   -5.4450 H   0  0  0  0  0  0  0  0  0  0  0  0
    0.7910    3.1932   -3.9712 H   0  0  0  0  0  0  0  0  0  0  0  0
    1.5465   -0.5077   -3.9592 H   0  0  0  0  0  0  0  0  0  0  0  0
    2.2807    1.0982   -3.9353 H   0  0  0  0  0  0  0  0  0  0  0  0
    1.4949    0.5086   -5.4089 H   0  0  0  0  0  0  0  0  0  0  0  0
   -1.1950    3.5504    3.4443 H   0  0  0  0  0  0  0  0  0  0  0  0
   -0.3406    2.4247    4.5547 H   0  0  0  0  0  0  0  0  0  0  0  0
   -1.9930    2.0628    4.0189 H   0  0  0  0  0  0  0  0  0  0  0  0
  2  1  2  0  0  0  0
  3  2  1  0  0  0  0
  4  3  1  0  0  0  0
  5  4  3  0  0  0  0
  6 21  1  0  0  0  0
  6  5  1  0  0  0  0
  6  7  1  0  0  0  0
  7  8  1  0  0  0  0
  8 24  1  0  0  0  0
  9  3  2  0  0  0  0
  9 16  1  0  0  0  0
 10  9  1  0  0  0  0
 11 10  3  0  0  0  0
 12 11  1  0  0  0  0
 13 25  1  0  0  0  0
 13 26  1  0  0  0  0
 13 12  1  0  0  0  0
 14 28  1  0  0  0  0
 14 30  1  0  0  0  0
 14 12  1  0  0  0  0
 15 31  1  0  0  0  0
 15 32  1  0  0  0  0
 15 12  1  0  0  0  0
 16 17  1  0  0  0  0
 17  2  1  0  0  0  0
 17 18  1  0  0  0  0
 18 36  1  0  0  0  0
 18 35  1  0  0  0  0
 19 16  2  0  0  0  0
 20  6  1  0  0  0  0
 22  7  1  0  0  0  0
 23  7  1  0  0  0  0
 27 13  1  0  0  0  0
 29 14  1  0  0  0  0
 33 15  1  0  0  0  0
 34 18  1  0  0  0  0
M  END
$$$$
