28_std.xyz
 OpenBabel12062321233D

 33 33  0  0  0  0  0  0  0  0999 V2000
   -2.0922   -2.6281    2.3377 O   0  0  0  0  0  0  0  0  0  0  0  0
   -1.4187   -1.6123    2.3556 C   0  0  0  0  0  0  0  0  0  0  0  0
   -0.5869   -1.1202    1.2339 C   0  0  0  0  0  0  0  0  0  0  0  0
   -0.5488   -1.6589   -0.1014 C   0  0  0  0  0  0  0  0  0  0  0  0
   -0.5364   -2.1231   -1.3198 C   0  0  0  0  0  0  0  0  0  0  0  0
   -0.5220   -2.6643   -2.7401 C   0  0  0  0  0  0  0  0  0  0  0  0
    0.8958   -2.6319   -3.3075 C   0  0  0  0  0  0  0  0  0  0  0  0
    1.7674   -3.4953   -2.5778 O   0  0  0  0  0  0  0  0  0  0  0  0
    0.0000    0.0000    1.6882 C   0  0  0  0  0  0  0  0  0  0  0  0
    0.7564    0.9312    0.7549 C   0  0  0  0  0  0  0  0  0  0  0  0
    1.4053    1.7300   -0.0457 C   0  0  0  0  0  0  0  0  0  0  0  0
    2.1617    2.6613   -0.9790 C   0  0  0  0  0  0  0  0  0  0  0  0
    1.2393    3.5213   -1.6606 O   0  0  0  0  0  0  0  0  0  0  0  0
    0.6478    2.9803   -2.7584 C   0  0  0  0  0  0  0  0  0  0  0  0
   -0.3020    3.9542   -3.3881 C   0  0  0  0  0  0  0  0  0  0  0  0
    0.8471    1.8527   -3.1920 O   0  0  0  0  0  0  0  0  0  0  0  0
   -0.4459    0.2872    3.0503 C   0  0  0  0  0  0  0  0  0  0  0  0
   -1.3123   -0.7093    3.3731 N   0  0  0  0  0  0  0  0  0  0  0  0
   -2.0922   -0.7533    4.5846 C   0  0  0  0  0  0  0  0  0  0  0  0
   -0.1118    1.2495    3.7160 O   0  0  0  0  0  0  0  0  0  0  0  0
   -1.1912   -2.0613   -3.3621 H   0  0  0  0  0  0  0  0  0  0  0  0
   -0.8969   -3.6934   -2.7174 H   0  0  0  0  0  0  0  0  0  0  0  0
    1.3164   -1.6207   -3.2912 H   0  0  0  0  0  0  0  0  0  0  0  0
    0.8871   -2.9813   -4.3444 H   0  0  0  0  0  0  0  0  0  0  0  0
    1.8136   -3.1527   -1.6688 H   0  0  0  0  0  0  0  0  0  0  0  0
    2.7808    2.0949   -1.6838 H   0  0  0  0  0  0  0  0  0  0  0  0
    2.8292    3.2970   -0.3885 H   0  0  0  0  0  0  0  0  0  0  0  0
   -0.2905    4.9127   -2.8609 H   0  0  0  0  0  0  0  0  0  0  0  0
   -1.3161    3.5485   -3.3503 H   0  0  0  0  0  0  0  0  0  0  0  0
    0.0000    4.1302   -4.4236 H   0  0  0  0  0  0  0  0  0  0  0  0
   -1.8775    0.1105    5.2197 H   0  0  0  0  0  0  0  0  0  0  0  0
   -1.8715   -1.6795    5.1204 H   0  0  0  0  0  0  0  0  0  0  0  0
   -3.1532   -0.7511    4.3155 H   0  0  0  0  0  0  0  0  0  0  0  0
  1  2  2  0  0  0  0
  2 18  1  0  0  0  0
  3  9  2  0  0  0  0
  3  2  1  0  0  0  0
  4  3  1  0  0  0  0
  5  4  3  0  0  0  0
  6 22  1  0  0  0  0
  6  5  1  0  0  0  0
  7 23  1  0  0  0  0
  7  6  1  0  0  0  0
  7  8  1  0  0  0  0
  8 25  1  0  0  0  0
  9 17  1  0  0  0  0
 10  9  1  0  0  0  0
 11 10  3  0  0  0  0
 12 27  1  0  0  0  0
 12 11  1  0  0  0  0
 13 12  1  0  0  0  0
 14 13  1  0  0  0  0
 15 29  1  0  0  0  0
 15 28  1  0  0  0  0
 15 14  1  0  0  0  0
 16 14  2  0  0  0  0
 17 18  1  0  0  0  0
 17 20  2  0  0  0  0
 18 19  1  0  0  0  0
 19 32  1  0  0  0  0
 19 31  1  0  0  0  0
 21  6  1  0  0  0  0
 24  7  1  0  0  0  0
 26 12  1  0  0  0  0
 30 15  1  0  0  0  0
 33 19  1  0  0  0  0
M  END
$$$$
