29_std.xyz
 OpenBabel12062321233D

 36 36  0  0  0  0  0  0  0  0999 V2000
   -0.6142   -0.4416    3.6572 O   0  0  0  0  0  0  0  0  0  0  0  0
   -0.6405    0.2872    2.6833 C   0  0  0  0  0  0  0  0  0  0  0  0
    0.0000    0.0000    1.3866 C   0  0  0  0  0  0  0  0  0  0  0  0
    0.5478   -1.2524    0.9857 C   0  0  0  0  0  0  0  0  0  0  0  0
    0.9822   -2.3055    0.6024 C   0  0  0  0  0  0  0  0  0  0  0  0
    1.5056   -3.5925    0.0917 C   0  0  0  0  0  0  0  0  0  0  0  0
    0.6247   -4.7851    0.4657 C   0  0  0  0  0  0  0  0  0  0  0  0
   -0.6794   -4.6687   -0.0954 O   0  0  0  0  0  0  0  0  0  0  0  0
   -0.1646    1.0934    0.6312 C   0  0  0  0  0  0  0  0  0  0  0  0
    0.1901    1.1545   -0.8455 C   0  0  0  0  0  0  0  0  0  0  0  0
    0.4944    1.2069   -2.1123 C   0  0  0  0  0  0  0  0  0  0  0  0
    0.8491    1.2679   -3.5891 C   0  0  0  0  0  0  0  0  0  0  0  0
    2.2161    1.9445   -3.7485 C   0  0  0  0  0  0  0  0  0  0  0  0
    0.9050   -0.1587   -4.1494 C   0  0  0  0  0  0  0  0  0  0  0  0
   -0.2229    2.0774   -4.3289 C   0  0  0  0  0  0  0  0  0  0  0  0
   -0.9115    2.0966    1.3947 C   0  0  0  0  0  0  0  0  0  0  0  0
   -1.2542    1.4936    2.5654 N   0  0  0  0  0  0  0  0  0  0  0  0
   -2.1708    2.0414    3.5321 C   0  0  0  0  0  0  0  0  0  0  0  0
   -1.1628    3.2285    1.0227 O   0  0  0  0  0  0  0  0  0  0  0  0
    2.5125   -3.7571    0.4907 H   0  0  0  0  0  0  0  0  0  0  0  0
    1.5911   -3.5366   -0.9996 H   0  0  0  0  0  0  0  0  0  0  0  0
    0.5314   -4.9011    1.5504 H   0  0  0  0  0  0  0  0  0  0  0  0
    1.0641   -5.7071    0.0682 H   0  0  0  0  0  0  0  0  0  0  0  0
   -1.1129   -3.9214    0.3536 H   0  0  0  0  0  0  0  0  0  0  0  0
    2.9994    1.3905   -3.2179 H   0  0  0  0  0  0  0  0  0  0  0  0
    2.2063    2.9633   -3.3436 H   0  0  0  0  0  0  0  0  0  0  0  0
    2.5061    2.0064   -4.8035 H   0  0  0  0  0  0  0  0  0  0  0  0
    1.6567   -0.7629   -3.6277 H   0  0  0  0  0  0  0  0  0  0  0  0
    1.1591   -0.1552   -5.2154 H   0  0  0  0  0  0  0  0  0  0  0  0
   -0.0587   -0.6694   -4.0365 H   0  0  0  0  0  0  0  0  0  0  0  0
   -0.2912    3.0994   -3.9379 H   0  0  0  0  0  0  0  0  0  0  0  0
   -1.2134    1.6201   -4.2204 H   0  0  0  0  0  0  0  0  0  0  0  0
    0.0000    2.1431   -5.3999 H   0  0  0  0  0  0  0  0  0  0  0  0
   -2.5576    3.0098    3.2022 H   0  0  0  0  0  0  0  0  0  0  0  0
   -1.6728    2.1347    4.4993 H   0  0  0  0  0  0  0  0  0  0  0  0
   -3.0067    1.3408    3.6395 H   0  0  0  0  0  0  0  0  0  0  0  0
  2  1  2  0  0  0  0
  3  2  1  0  0  0  0
  4  3  1  0  0  0  0
  5  4  3  0  0  0  0
  6  7  1  0  0  0  0
  6 20  1  0  0  0  0
  6  5  1  0  0  0  0
  7 22  1  0  0  0  0
  8 24  1  0  0  0  0
  8  7  1  0  0  0  0
  9  3  2  0  0  0  0
  9 16  1  0  0  0  0
 10  9  1  0  0  0  0
 11 10  3  0  0  0  0
 12 11  1  0  0  0  0
 13 12  1  0  0  0  0
 13 26  1  0  0  0  0
 13 25  1  0  0  0  0
 14 30  1  0  0  0  0
 14 28  1  0  0  0  0
 14 12  1  0  0  0  0
 15 32  1  0  0  0  0
 15 31  1  0  0  0  0
 15 12  1  0  0  0  0
 16 17  1  0  0  0  0
 17  2  1  0  0  0  0
 17 18  1  0  0  0  0
 18 36  1  0  0  0  0
 18 35  1  0  0  0  0
 19 16  2  0  0  0  0
 21  6  1  0  0  0  0
 23  7  1  0  0  0  0
 27 13  1  0  0  0  0
 29 14  1  0  0  0  0
 33 15  1  0  0  0  0
 34 18  1  0  0  0  0
M  END
$$$$
