2_std.xyz
 OpenBabel12062321233D

 13 12  0  0  0  0  0  0  0  0999 V2000
    0.6227   -2.3327   -1.1257 C   0  0  0  0  0  0  0  0  0  0  0  0
    0.4957   -1.8569    0.0816 C   0  0  0  0  0  0  0  0  0  0  0  0
    0.3476   -1.3022    1.4890 C   0  0  0  0  0  0  0  0  0  0  0  0
    0.0000    0.0000    1.6738 C   0  0  0  0  0  0  0  0  0  0  0  0
   -0.2403    0.9003    0.4729 C   0  0  0  0  0  0  0  0  0  0  0  0
   -0.4465    1.6725   -0.5572 C   0  0  0  0  0  0  0  0  0  0  0  0
   -0.6868    2.5728   -1.7581 C   0  0  0  0  0  0  0  0  0  0  0  0
    0.7246   -2.7147   -2.1144 H   0  0  0  0  0  0  0  0  0  0  0  0
    0.5274   -1.9758    2.3185 H   0  0  0  0  0  0  0  0  0  0  0  0
   -0.1157    0.4336    2.6601 H   0  0  0  0  0  0  0  0  0  0  0  0
    0.0000    3.4233   -1.7302 H   0  0  0  0  0  0  0  0  0  0  0  0
   -1.7149    2.9450   -1.7456 H   0  0  0  0  0  0  0  0  0  0  0  0
   -0.5223    2.0128   -2.6828 H   0  0  0  0  0  0  0  0  0  0  0  0
  1  2  3  0  0  0  0
  2  3  1  0  0  0  0
  3  4  2  0  0  0  0
  3  9  1  0  0  0  0
  4 10  1  0  0  0  0
  5  4  1  0  0  0  0
  6  5  3  0  0  0  0
  7 12  1  0  0  0  0
  7 11  1  0  0  0  0
  7  6  1  0  0  0  0
  8  1  1  0  0  0  0
 13  7  1  0  0  0  0
M  END
$$$$
