30_std.xyz
 OpenBabel12062321233D

 31 31  0  0  0  0  0  0  0  0999 V2000
    0.2013   -1.1322    3.5401 O   0  0  0  0  0  0  0  0  0  0  0  0
   -0.4978   -0.6476    2.6663 C   0  0  0  0  0  0  0  0  0  0  0  0
    0.0000    0.0000    1.4408 C   0  0  0  0  0  0  0  0  0  0  0  0
    1.3468    0.0214    0.9976 C   0  0  0  0  0  0  0  0  0  0  0  0
    2.4753    0.0405    0.5812 C   0  0  0  0  0  0  0  0  0  0  0  0
    3.8493    0.0951    0.0474 C   0  0  0  0  0  0  0  0  0  0  0  0
    4.0763   -0.9015   -1.0888 C   0  0  0  0  0  0  0  0  0  0  0  0
    3.2897   -0.5757   -2.2319 O   0  0  0  0  0  0  0  0  0  0  0  0
   -1.0710    0.4229    0.7611 C   0  0  0  0  0  0  0  0  0  0  0  0
   -1.0123    0.9558   -0.6612 C   0  0  0  0  0  0  0  0  0  0  0  0
   -0.9620    1.4129   -1.8813 C   0  0  0  0  0  0  0  0  0  0  0  0
   -0.9033    1.9457   -3.3037 C   0  0  0  0  0  0  0  0  0  0  0  0
   -0.0766    1.0118   -4.1863 C   0  0  0  0  0  0  0  0  0  0  0  0
   -0.6851   -0.2705   -4.3005 O   0  0  0  0  0  0  0  0  0  0  0  0
   -2.2809    0.0388    1.5015 C   0  0  0  0  0  0  0  0  0  0  0  0
   -1.8563   -0.6330    2.6039 N   0  0  0  0  0  0  0  0  0  0  0  0
   -2.7118   -1.3324    3.5300 C   0  0  0  0  0  0  0  0  0  0  0  0
   -3.4238    0.2637    1.1470 O   0  0  0  0  0  0  0  0  0  0  0  0
    4.5615   -0.1148    0.8534 H   0  0  0  0  0  0  0  0  0  0  0  0
    4.0477    1.1097   -0.3165 H   0  0  0  0  0  0  0  0  0  0  0  0
    3.8480   -1.9297   -0.7875 H   0  0  0  0  0  0  0  0  0  0  0  0
    5.1254   -0.8682   -1.4013 H   0  0  0  0  0  0  0  0  0  0  0  0
    2.3615   -0.7460   -1.9958 H   0  0  0  0  0  0  0  0  0  0  0  0
   -0.4631    2.9480   -3.2957 H   0  0  0  0  0  0  0  0  0  0  0  0
   -1.9281    2.0156   -3.6844 H   0  0  0  0  0  0  0  0  0  0  0  0
    0.9382    0.8794   -3.7952 H   0  0  0  0  0  0  0  0  0  0  0  0
    0.0000    1.4283   -5.1956 H   0  0  0  0  0  0  0  0  0  0  0  0
   -0.7472   -0.6489   -3.4066 H   0  0  0  0  0  0  0  0  0  0  0  0
   -3.7607   -1.2265    3.2508 H   0  0  0  0  0  0  0  0  0  0  0  0
   -2.5418   -0.9456    4.5384 H   0  0  0  0  0  0  0  0  0  0  0  0
   -2.4357   -2.3921    3.5177 H   0  0  0  0  0  0  0  0  0  0  0  0
  2  1  2  0  0  0  0
  3  2  1  0  0  0  0
  4  3  1  0  0  0  0
  5  4  3  0  0  0  0
  6  5  1  0  0  0  0
  6 19  1  0  0  0  0
  7 21  1  0  0  0  0
  7  6  1  0  0  0  0
  8 23  1  0  0  0  0
  8  7  1  0  0  0  0
  9  3  2  0  0  0  0
  9 15  1  0  0  0  0
 10  9  1  0  0  0  0
 11 10  3  0  0  0  0
 12 24  1  0  0  0  0
 12 11  1  0  0  0  0
 13 26  1  0  0  0  0
 13 12  1  0  0  0  0
 14 13  1  0  0  0  0
 14 28  1  0  0  0  0
 15 16  1  0  0  0  0
 16  2  1  0  0  0  0
 16 17  1  0  0  0  0
 17 30  1  0  0  0  0
 18 15  2  0  0  0  0
 20  6  1  0  0  0  0
 22  7  1  0  0  0  0
 25 12  1  0  0  0  0
 27 13  1  0  0  0  0
 29 17  1  0  0  0  0
 31 17  1  0  0  0  0
M  END
$$$$
