33_std.xyz
 OpenBabel12062321233D

 34 35  0  0  0  0  0  0  0  0999 V2000
    0.0238   -0.4839   -2.7430 O   0  0  0  0  0  0  0  0  0  0  0  0
    0.1511   -0.7180   -1.5451 C   0  0  0  0  0  0  0  0  0  0  0  0
   -0.1632    0.2956   -0.5086 C   0  0  0  0  0  0  0  0  0  0  0  0
   -0.6383    1.5833   -0.9717 C   0  0  0  0  0  0  0  0  0  0  0  0
   -1.0293    2.6446   -1.3921 C   0  0  0  0  0  0  0  0  0  0  0  0
   -1.4864    3.9507   -1.9028 C   0  0  0  0  0  0  0  0  0  0  0  0
   -2.4144    3.8147   -3.1010 C   0  0  0  0  0  0  0  0  0  0  0  0
    0.0000    0.0000    0.8010 C   0  0  0  0  0  0  0  0  0  0  0  0
   -0.3384    1.1047    1.7887 C   0  0  0  0  0  0  0  0  0  0  0  0
   -0.6286    2.0524    2.6359 C   0  0  0  0  0  0  0  0  0  0  0  0
   -0.9670    3.1572    3.6235 C   0  0  0  0  0  0  0  0  0  0  0  0
    0.2335    4.0671    3.8154 C   0  0  0  0  0  0  0  0  0  0  0  0
    0.4775   -1.3176    1.2758 C   0  0  0  0  0  0  0  0  0  0  0  0
    0.7853   -2.3299    0.2479 C   0  0  0  0  0  0  0  0  0  0  0  0
    0.6280   -2.0371   -1.1042 C   0  0  0  0  0  0  0  0  0  0  0  0
    0.9243   -3.0035   -2.0733 C   0  0  0  0  0  0  0  0  0  0  0  0
    1.3768   -4.2623   -1.6863 C   0  0  0  0  0  0  0  0  0  0  0  0
    1.5341   -4.5595   -0.3334 C   0  0  0  0  0  0  0  0  0  0  0  0
    1.2398   -3.5970    0.6347 C   0  0  0  0  0  0  0  0  0  0  0  0
    0.6152   -1.5741    2.4657 O   0  0  0  0  0  0  0  0  0  0  0  0
   -0.6238    4.5629   -2.1909 H   0  0  0  0  0  0  0  0  0  0  0  0
   -2.0102    4.4953   -1.1087 H   0  0  0  0  0  0  0  0  0  0  0  0
   -1.9115    3.3268   -3.9428 H   0  0  0  0  0  0  0  0  0  0  0  0
   -2.7478    4.8031   -3.4382 H   0  0  0  0  0  0  0  0  0  0  0  0
   -3.3048    3.2279   -2.8520 H   0  0  0  0  0  0  0  0  0  0  0  0
   -1.2581    2.7091    4.5793 H   0  0  0  0  0  0  0  0  0  0  0  0
   -1.8187    3.7311    3.2435 H   0  0  0  0  0  0  0  0  0  0  0  0
    1.0935    3.5077    4.2002 H   0  0  0  0  0  0  0  0  0  0  0  0
    0.0000    4.8663    4.5251 H   0  0  0  0  0  0  0  0  0  0  0  0
    0.5338    4.5273    2.8676 H   0  0  0  0  0  0  0  0  0  0  0  0
    0.8029   -2.7756   -3.1313 H   0  0  0  0  0  0  0  0  0  0  0  0
    1.6053   -5.0088   -2.4432 H   0  0  0  0  0  0  0  0  0  0  0  0
    1.8868   -5.5432   -0.0320 H   0  0  0  0  0  0  0  0  0  0  0  0
    1.3660   -3.8389    1.6888 H   0  0  0  0  0  0  0  0  0  0  0  0
  1  2  2  0  0  0  0
  2 15  1  0  0  0  0
  2  3  1  0  0  0  0
  3  8  2  0  0  0  0
  4  3  1  0  0  0  0
  5  4  3  0  0  0  0
  6  5  1  0  0  0  0
  6 22  1  0  0  0  0
  7 25  1  0  0  0  0
  7  6  1  0  0  0  0
  8 13  1  0  0  0  0
  8  9  1  0  0  0  0
  9 10  3  0  0  0  0
 10 11  1  0  0  0  0
 11 12  1  0  0  0  0
 11 26  1  0  0  0  0
 12 28  1  0  0  0  0
 12 29  1  0  0  0  0
 13 20  2  0  0  0  0
 14 19  1  0  0  0  0
 14 13  1  0  0  0  0
 15 14  2  0  0  0  0
 16 17  2  0  0  0  0
 16 15  1  0  0  0  0
 17 18  1  0  0  0  0
 18 33  1  0  0  0  0
 18 19  2  0  0  0  0
 19 34  1  0  0  0  0
 21  6  1  0  0  0  0
 23  7  1  0  0  0  0
 24  7  1  0  0  0  0
 27 11  1  0  0  0  0
 30 12  1  0  0  0  0
 31 16  1  0  0  0  0
 32 17  1  0  0  0  0
M  END
$$$$
