36_std.xyz
 OpenBabel12062321233D

 26 27  0  0  0  0  0  0  0  0999 V2000
    0.3525    2.2780    1.3439 O   0  0  0  0  0  0  0  0  0  0  0  0
    0.1427    1.2459    0.7089 C   0  0  0  0  0  0  0  0  0  0  0  0
   -0.0079    1.2834   -0.7610 C   0  0  0  0  0  0  0  0  0  0  0  0
   -0.0052    2.6344   -1.4574 C   0  0  0  0  0  0  0  0  0  0  0  0
   -0.0029    3.7933   -2.0549 C   0  0  0  0  0  0  0  0  0  0  0  0
   -0.1681    0.1735   -1.4974 C   0  0  0  0  0  0  0  0  0  0  0  0
   -0.3471    0.2236   -2.9278 C   0  0  0  0  0  0  0  0  0  0  0  0
   -0.4955    0.2538   -4.1185 C   0  0  0  0  0  0  0  0  0  0  0  0
   -0.1558   -1.1610   -0.8420 C   0  0  0  0  0  0  0  0  0  0  0  0
    0.1436   -1.1892    0.5163 N   0  0  0  0  0  0  0  0  0  0  0  0
    0.0044   -2.4751    1.1901 C   0  0  0  0  0  0  0  0  0  0  0  0
    0.5697   -2.5051    2.5952 C   0  0  0  0  0  0  0  0  0  0  0  0
   -0.0803   -1.3875    3.3787 C   0  0  0  0  0  0  0  0  0  0  0  0
    0.3112   -0.0788    2.7271 C   0  0  0  0  0  0  0  0  0  0  0  0
    0.0000    0.0000    1.3058 N   0  0  0  0  0  0  0  0  0  0  0  0
   -0.3714   -2.1807   -1.4975 O   0  0  0  0  0  0  0  0  0  0  0  0
    0.0000    4.7428   -2.5377 H   0  0  0  0  0  0  0  0  0  0  0  0
   -0.6301    0.2687   -5.1761 H   0  0  0  0  0  0  0  0  0  0  0  0
    0.5165   -3.2343    0.5857 H   0  0  0  0  0  0  0  0  0  0  0  0
   -1.0602   -2.7439    1.1934 H   0  0  0  0  0  0  0  0  0  0  0  0
    1.6572   -2.3629    2.5636 H   0  0  0  0  0  0  0  0  0  0  0  0
    0.3759   -3.4737    3.0658 H   0  0  0  0  0  0  0  0  0  0  0  0
    0.2423   -1.4044    4.4241 H   0  0  0  0  0  0  0  0  0  0  0  0
   -1.1718   -1.4998    3.3659 H   0  0  0  0  0  0  0  0  0  0  0  0
    1.3856    0.1116    2.8501 H   0  0  0  0  0  0  0  0  0  0  0  0
   -0.2119    0.7409    3.2347 H   0  0  0  0  0  0  0  0  0  0  0  0
  2 15  1  0  0  0  0
  2  1  2  0  0  0  0
  3  2  1  0  0  0  0
  4  3  1  0  0  0  0
  5  4  3  0  0  0  0
  6  9  1  0  0  0  0
  6  3  2  0  0  0  0
  7  6  1  0  0  0  0
  8  7  3  0  0  0  0
  9 10  1  0  0  0  0
 10 11  1  0  0  0  0
 10 15  1  0  0  0  0
 11 20  1  0  0  0  0
 11 12  1  0  0  0  0
 12 22  1  0  0  0  0
 12 13  1  0  0  0  0
 13 23  1  0  0  0  0
 14 25  1  0  0  0  0
 14 26  1  0  0  0  0
 14 13  1  0  0  0  0
 15 14  1  0  0  0  0
 16  9  2  0  0  0  0
 17  5  1  0  0  0  0
 18  8  1  0  0  0  0
 19 11  1  0  0  0  0
 21 12  1  0  0  0  0
 24 13  1  0  0  0  0
M  END
$$$$
