3_std.xyz
 OpenBabel12062321233D

 16 15  0  0  0  0  0  0  0  0999 V2000
   -0.4766    0.1380   -3.3398 C   0  0  0  0  0  0  0  0  0  0  0  0
    0.3835   -0.1110   -2.1115 C   0  0  0  0  0  0  0  0  0  0  0  0
    1.1213   -0.3246   -1.0579 C   0  0  0  0  0  0  0  0  0  0  0  0
    1.9814   -0.5736    0.1704 C   0  0  0  0  0  0  0  0  0  0  0  0
    1.4518   -0.4203    1.4140 C   0  0  0  0  0  0  0  0  0  0  0  0
    0.0000    0.0000    1.5754 C   0  0  0  0  0  0  0  0  0  0  0  0
   -1.2454    0.3605    1.7138 C   0  0  0  0  0  0  0  0  0  0  0  0
   -2.6972    0.7808    1.8751 C   0  0  0  0  0  0  0  0  0  0  0  0
   -1.4604    0.5076   -3.0373 H   0  0  0  0  0  0  0  0  0  0  0  0
   -0.6031   -0.7917   -3.9015 H   0  0  0  0  0  0  0  0  0  0  0  0
    0.0000    0.8814   -3.9847 H   0  0  0  0  0  0  0  0  0  0  0  0
    3.0111   -0.8716    0.0129 H   0  0  0  0  0  0  0  0  0  0  0  0
    2.0312   -0.5880    2.3141 H   0  0  0  0  0  0  0  0  0  0  0  0
   -2.7525    1.7367    2.4032 H   0  0  0  0  0  0  0  0  0  0  0  0
   -3.2428    0.0257    2.4477 H   0  0  0  0  0  0  0  0  0  0  0  0
   -3.1652    0.8893    0.8927 H   0  0  0  0  0  0  0  0  0  0  0  0
  1  9  1  0  0  0  0
  1  2  1  0  0  0  0
  2  3  3  0  0  0  0
  3  4  1  0  0  0  0
  4  5  2  0  0  0  0
  5  6  1  0  0  0  0
  5 13  1  0  0  0  0
  6  7  3  0  0  0  0
  7  8  1  0  0  0  0
  8 14  1  0  0  0  0
  8 15  1  0  0  0  0
 10  1  1  0  0  0  0
 11  1  1  0  0  0  0
 12  4  1  0  0  0  0
 16  8  1  0  0  0  0
M  END
$$$$
